mtd/3phase_linearization/13Bus_copy/IEEE13Nodeckt_Curr_Elem.Txt

CIRCUIT ELEMENT CURRENTS

(Currents into element from indicated bus)

Power Delivery Elements

  Bus     Phase    Magnitude, A     Angle      (Real)   +j  (Imag)

ELEMENT = "Vsource.SOURCE"
SOURCEBUS     1           21.469 /_ -178.6 =    -21.463 +j  -0.53395
SOURCEBUS     2           15.776 /_   69.1 =     5.6367 +j    14.734
SOURCEBUS     3           22.651 /_  -56.3 =     12.554 +j   -18.854
------------
SOURCEBUS     0           21.469 /_    1.4 =     21.463 +j   0.53395
SOURCEBUS     0           15.776 /_ -110.9 =    -5.6367 +j   -14.734
SOURCEBUS     0           22.651 /_  123.7 =    -12.554 +j    18.854

ELEMENT = "Transformer.SUB"
SOURCEBUS     1           21.469 /_    1.4 =     21.463 +j   0.53395
SOURCEBUS     2           15.776 /_ -110.9 =    -5.6367 +j   -14.734
SOURCEBUS     3           22.651 /_  123.7 =    -12.554 +j    18.854
SOURCEBUS     0           5.6887 /_ -125.1 =    -3.2717 +j   -4.6537
------------
650           1            593.5 /_ -178.6 =    -593.32 +j   -14.761
650           2           436.11 /_   69.1 =     155.82 +j    407.32
650           3           626.18 /_  -56.3 =     347.05 +j   -521.21
650           0           157.26 /_   54.9 =     90.444 +j    128.65

ELEMENT = "Transformer.REG1"
650           1            593.5 /_    1.4 =     593.32 +j    14.761
650           0            593.5 /_ -178.6 =    -593.32 +j   -14.762
------------
RG60          1           558.59 /_ -178.6 =    -558.42 +j   -13.894
RG60          0           558.59 /_    1.4 =     558.42 +j    13.893

ELEMENT = "Transformer.REG2"
650           2           436.11 /_ -110.9 =    -155.82 +j   -407.32
650           0           436.11 /_   69.1 =     155.82 +j    407.32
------------
RG60          2           415.34 /_   69.1 =      148.4 +j    387.93
RG60          0           415.34 /_ -110.9 =     -148.4 +j   -387.93

ELEMENT = "Transformer.REG3"
650           3           626.18 /_  123.7 =    -347.05 +j    521.21
650           0           626.18 /_  -56.3 =     347.05 +j   -521.21
------------
RG60          3            585.9 /_  -56.3 =     324.73 +j   -487.68
RG60          0            585.9 /_  123.7 =    -324.73 +j    487.68

ELEMENT = "Transformer.XFM1"
633           1           81.358 /_   -7.8 =     80.615 +j   -10.971
633           2           61.146 /_ -129.1 =    -38.571 +j   -47.445
633           3           62.704 /_  110.5 =    -21.917 +j    58.749
633           0            20.13 /_ -179.1 =    -20.127 +j  -0.33241
------------
634           1            705.1 /_  172.2 =    -698.66 +j    95.085
634           2           529.93 /_   50.9 =     334.29 +j    411.19
634           3           543.43 /_  -69.5 =     189.95 +j   -509.16
634           0           174.46 /_    0.9 =     174.43 +j    2.8809

ELEMENT = "Line.650632"
RG60          1           558.59 /_    1.4 =     558.42 +j    13.894
RG60          2           415.34 /_ -110.9 =     -148.4 +j   -387.93
RG60          3            585.9 /_  123.7 =    -324.73 +j    487.68
------------
632           1           558.59 /_ -178.6 =    -558.42 +j   -13.893
632           2           415.34 /_   69.1 =      148.4 +j    387.93
632           3            585.9 /_  -56.3 =     324.73 +j   -487.68

ELEMENT = "Line.632670"
632           1           478.45 /_    3.0 =      477.8 +j    24.864
632           2           215.56 /_ -104.7 =    -54.668 +j   -208.51
632           3           474.92 /_  130.0 =     -305.3 +j    363.79
------------
670           1           478.45 /_ -177.0 =     -477.8 +j   -24.863
670           2           215.56 /_   75.3 =     54.668 +j    208.51
670           3           474.92 /_  -50.0 =      305.3 +j   -363.79

ELEMENT = "Line.670671"
670           1           470.38 /_    3.1 =     469.69 +j    25.413
670           2           186.77 /_ -101.9 =    -38.636 +j   -182.73
670           3           420.39 /_  131.7 =     -279.8 +j    313.75
------------
671           1           470.38 /_ -176.9 =    -469.69 +j   -25.413
671           2           186.77 /_   78.1 =     38.637 +j    182.73
671           3           420.39 /_  -48.3 =      279.8 +j   -313.75

ELEMENT = "Line.671680"
671           1       0.00057685 /_  115.7 =  -0.00025051 +j 0.00051962
671           2       0.00060475 /_   -2.8 =  0.00060402 +j -2.9783E-005
671           3       0.00057976 /_ -124.5 =  -0.00032808 +j -0.000478
------------
680           1      4.3677E-012 /_  -38.7 =  3.4106E-012 +j -2.7285E-012
680           2      3.8587E-012 /_  135.0 =  -2.7285E-012 +j 2.7285E-012
680           3      4.0674E-012 /_   63.4 =  1.819E-012 +j 3.638E-012

ELEMENT = "Line.632633"
632           1           81.358 /_   -7.7 =     80.615 +j   -10.971
632           2           61.145 /_ -129.1 =    -38.571 +j   -47.445
632           3           62.704 /_  110.5 =    -21.917 +j    58.748
------------
633           1           81.358 /_  172.2 =    -80.615 +j    10.971
633           2           61.146 /_   50.9 =     38.571 +j    47.445
633           3           62.704 /_  -69.5 =     21.917 +j   -58.749

ELEMENT = "Line.632645"
632           3           65.194 /_   87.8 =     2.4898 +j    65.147
632           2           143.04 /_ -112.7 =    -55.162 +j   -131.97
------------
645           3           65.194 /_  -92.2 =      -2.49 +j   -65.147
645           2           143.04 /_   67.3 =     55.163 +j    131.97

ELEMENT = "Line.645646"
645           3           65.194 /_   87.8 =       2.49 +j    65.147
645           2           65.194 /_  -92.2 =      -2.49 +j   -65.147
------------
646           3           65.194 /_  -92.2 =    -2.4901 +j   -65.147
646           2           65.194 /_   87.8 =     2.4901 +j    65.147

ELEMENT = "Line.692675"
692           1           205.49 /_   24.8 =      186.5 +j    86.275
692           2           69.501 /_  -25.5 =     62.713 +j   -29.958
692           3           123.91 /_  141.9 =    -97.559 +j    76.387
------------
675           1           205.49 /_ -155.2 =    -186.51 +j   -86.245
675           2           69.469 /_  154.5 =    -62.678 +j    29.956
675           3           123.91 /_  -38.1 =     97.541 +j   -76.414

ELEMENT = "Line.671684"
671           1           63.108 /_   -9.1 =     62.309 +j   -10.009
671           3           71.206 /_  151.7 =    -62.709 +j    33.733
------------
684           1           63.108 /_  170.9 =     -62.31 +j     10.01
684           3           71.206 /_  -28.3 =     62.709 +j   -33.733

ELEMENT = "Line.684611"
684           3           71.206 /_  151.7 =    -62.709 +j    33.733
------------
611           3           71.206 /_  -28.3 =     62.709 +j   -33.733

ELEMENT = "Line.684652"
684           1           63.108 /_   -9.1 =      62.31 +j    -10.01
------------
652           1           63.126 /_  170.8 =    -62.323 +j    10.039

ELEMENT = "Line.671692"
671           1           229.28 /_   11.8 =     224.43 +j    46.919
671           2           69.501 /_  -25.5 =     62.713 +j   -29.958
671           3           178.19 /_  139.5 =    -135.49 +j    115.74
------------
692           1           229.28 /_ -168.2 =    -224.43 +j   -46.919
692           2           69.501 /_  154.5 =    -62.713 +j    29.958
692           3           178.19 /_  -40.5 =     135.49 +j   -115.74

ELEMENT = "Capacitor.CAP1"
675           1           81.834 /_  114.4 =    -33.863 +j    74.499
675           2           87.898 /_   -2.5 =     87.811 +j   -3.8979
675           3           81.351 /_ -123.9 =    -45.389 +j   -67.511
------------
675           0           81.834 /_  -65.6 =     33.863 +j   -74.499
675           0           87.898 /_  177.5 =    -87.811 +j    3.8979
675           0           81.351 /_   56.1 =     45.389 +j    67.511

ELEMENT = "Capacitor.CAP2"
611           3           40.648 /_ -124.2 =    -22.832 +j   -33.629
------------
611           0           40.648 /_   55.8 =     22.832 +j    33.629

= = = = = = = = = = = = = = = = = = =  = = = = = = = = = = =  = =

Power Conversion Elements

  Bus     Phase    Magnitude, A     Angle      (Real)   +j  (Imag)

ELEMENT = "Load.671"
671           1           183.32 /_   -3.6 =     182.96 +j   -11.498
671           2           183.34 /_ -123.6 =    -101.35 +j   -152.78
671           3           183.43 /_  116.4 =    -81.612 +j    164.27

ELEMENT = "Load.634A"
634           1           705.11 /_   -7.7 =     698.67 +j    -95.07
634           0           705.11 /_  172.3 =    -698.67 +j     95.07

ELEMENT = "Load.634B"
634           2           529.91 /_ -129.1 =    -334.29 +j   -411.16
634           0           529.91 /_   50.9 =     334.29 +j    411.16

ELEMENT = "Load.634C"
634           3           543.46 /_  110.5 =    -189.96 +j    509.17
634           0           543.46 /_  -69.5 =     189.96 +j   -509.17

ELEMENT = "Load.645"
645           2           85.088 /_ -128.2 =    -52.673 +j   -66.824
645           0           85.088 /_   51.8 =     52.673 +j    66.824

ELEMENT = "Load.646"
646           2           65.194 /_  -92.2 =    -2.4895 +j   -65.147
646           3           65.194 /_   87.8 =     2.4895 +j    65.147

ELEMENT = "Load.692"
692           3           54.658 /_  133.9 =    -37.929 +j    39.357
692           1           54.658 /_  -46.1 =     37.929 +j   -39.357

ELEMENT = "Load.675A"
675           1           220.69 /_    3.1 =     220.37 +j    11.753
675           0           220.69 /_ -176.9 =    -220.37 +j   -11.753

ELEMENT = "Load.675B"
675           2           36.203 /_ -134.0 =    -25.134 +j   -26.057
675           0           36.203 /_   46.0 =     25.134 +j    26.057

ELEMENT = "Load.675C"
675           3           153.09 /_  109.9 =    -52.159 +j    143.93
675           0           153.09 /_  -70.1 =     52.159 +j   -143.93

ELEMENT = "Load.611"
611           3           78.285 /_  120.6 =    -39.881 +j    67.365
611           0           78.285 /_  -59.4 =     39.881 +j   -67.365

ELEMENT = "Load.652"
652           1           63.126 /_   -9.1 =     62.323 +j   -10.037
652           0           63.126 /_  170.9 =    -62.323 +j    10.037

ELEMENT = "Load.670A"
670           1           8.1275 /_   -3.9 =     8.1088 +j  -0.54977
670           0           8.1275 /_  176.1 =    -8.1088 +j   0.54977

ELEMENT = "Load.670B"
670           2           30.353 /_ -121.9 =    -16.032 +j   -25.773
670           0           30.353 /_   58.1 =     16.032 +j    25.773

ELEMENT = "Load.670C"
670           3           56.162 /_  117.0 =    -25.497 +j     50.04
670           0           56.162 /_  -63.0 =     25.497 +j    -50.04

