mtd/3phase_linearization/13Bus_copy/IEEE13Nodeckt_Power_elem_kVA.txt

CIRCUIT ELEMENT POWER FLOW

(Power Flow into element from indicated Bus)

Power Delivery Elements

  Bus     Phase     kW     +j   kvar         kVA         PF

ELEMENT = "Vsource.SOURCE"
SOURCEBUS     1     -1251.7 +j   -681.5     1425.2       0.8783
SOURCEBUS     2      -978.3 +j   -374.1     1047.3       0.9340
SOURCEBUS     3     -1347.7 +j   -667.0     1503.7       0.8962
   TERMINAL TOTAL . -3577.7 +j  -1722.6     3970.8       0.9010
SOURCEBUS     0         0.0 +j      0.0        0.0       1.0000
SOURCEBUS     0         0.0 +j      0.0        0.0       1.0000
SOURCEBUS     0         0.0 +j      0.0        0.0       1.0000
   TERMINAL TOTAL .     0.0 +j      0.0        0.0       1.0000

ELEMENT = "Transformer.SUB"
SOURCEBUS     1      1251.7 +j    681.5     1425.2       0.8783
SOURCEBUS     2       978.3 +j    374.1     1047.3       0.9340
SOURCEBUS     3      1347.7 +j    667.0     1503.7       0.8962
SOURCEBUS     0         0.0 +j      0.0        0.0       1.0000
   TERMINAL TOTAL .  3577.7 +j   1722.6     3970.8       0.9010
650           1     -1251.7 +j   -681.4     1425.2       0.8783
650           2      -978.3 +j   -374.0     1047.3       0.9341
650           3     -1347.7 +j   -666.9     1503.7       0.8963
650           0         0.0 +j      0.0        0.0       1.0000
   TERMINAL TOTAL . -3577.7 +j  -1722.4     3970.7       0.9010

ELEMENT = "Transformer.REG1"
650           1      1251.7 +j    681.4     1425.2       0.8783
650           0         0.0 +j      0.0        0.0       1.0000
   TERMINAL TOTAL .  1251.7 +j    681.4     1425.2       0.8783
RG60          1     -1251.6 +j   -681.3     1425.0       0.8783
RG60          0         0.0 +j      0.0        0.0       1.0000
   TERMINAL TOTAL . -1251.6 +j   -681.3     1425.0       0.8783

ELEMENT = "Transformer.REG2"
650           2       978.3 +j    374.0     1047.3       0.9341
650           0         0.0 +j      0.0        0.0       1.0000
   TERMINAL TOTAL .   978.3 +j    374.0     1047.3       0.9341
RG60          2      -978.2 +j   -374.0     1047.2       0.9341
RG60          0         0.0 +j      0.0        0.0       1.0000
   TERMINAL TOTAL .  -978.2 +j   -374.0     1047.2       0.9341

ELEMENT = "Transformer.REG3"
650           3      1347.7 +j    666.9     1503.7       0.8963
650           0         0.0 +j      0.0        0.0       1.0000
   TERMINAL TOTAL .  1347.7 +j    666.9     1503.7       0.8963
RG60          3     -1347.6 +j   -666.8     1503.5       0.8963
RG60          0         0.0 +j      0.0        0.0       1.0000
   TERMINAL TOTAL . -1347.6 +j   -666.8     1503.5       0.8963

ELEMENT = "Transformer.XFM1"
633           1       162.5 +j    114.6      198.9       0.8173
633           2       121.4 +j     92.6      152.7       0.7952
633           3       121.5 +j     92.7      152.8       0.7949
633           0         0.0 +j      0.0        0.0       1.0000
   TERMINAL TOTAL .   405.4 +j    299.9      504.3       0.8040
634           1      -160.0 +j   -110.0      194.2       0.8240
634           2      -120.0 +j    -90.0      150.0       0.8000
634           3      -120.0 +j    -90.0      150.0       0.8000
634           0         0.0 +j      0.0        0.0       1.0000
   TERMINAL TOTAL .  -400.0 +j   -290.0      494.1       0.8096

ELEMENT = "Line.650632"
RG60          1      1251.6 +j    681.3     1425.0       0.8783
RG60          2       978.2 +j    374.0     1047.2       0.9341
RG60          3      1347.6 +j    666.8     1503.5       0.8963
   TERMINAL TOTAL .  3577.4 +j   1722.0     3970.2       0.9010
632           1     -1230.0 +j   -601.9     1369.3       0.8982
632           2      -981.4 +j   -341.7     1039.2       0.9444
632           3     -1306.3 +j   -585.8     1431.6       0.9124
   TERMINAL TOTAL . -3517.7 +j  -1529.4     3835.8       0.9171

ELEMENT = "Line.632670"
632           1      1067.1 +j    486.8     1172.9       0.9098
632           2       525.6 +j    120.9      539.3       0.9746
632           3      1104.9 +j    354.9     1160.5       0.9521
   TERMINAL TOTAL .  2697.5 +j    962.6     2864.1       0.9418
670           1     -1063.9 +j   -465.0     1161.1       0.9163
670           2      -527.5 +j   -119.3      540.9       0.9754
670           3     -1093.4 +j   -337.6     1144.3       0.9555
   TERMINAL TOTAL . -2684.8 +j   -921.9     2838.7       0.9458

ELEMENT = "Line.670671"
670           1      1046.9 +j    455.0     1141.5       0.9171
670           2       461.5 +j     81.3      468.6       0.9848
670           3       976.4 +j    269.6     1012.9       0.9639
   TERMINAL TOTAL .  2484.8 +j    805.9     2612.2       0.9512
671           1     -1039.1 +j   -411.4     1117.6       0.9298
671           2      -465.9 +j    -78.6      472.4       0.9861
671           3      -957.5 +j   -244.9      988.3       0.9688
   TERMINAL TOTAL . -2462.5 +j   -734.8     2569.8       0.9582

ELEMENT = "Line.671680"
671           1        -0.0 +j     -0.0        0.0       0.0182
671           2         0.0 +j     -0.0        0.0      -0.0080
671           3         0.0 +j     -0.0        0.0      -0.0094
   TERMINAL TOTAL .     0.0 +j     -0.0        0.0      -0.0000
680           1         0.0 +j      0.0        0.0       0.4485
680           2        -0.0 +j      0.0        0.0      -0.6773
680           3         0.0 +j      0.0        0.0       0.1281
   TERMINAL TOTAL .    -0.0 +j      0.0        0.0      -0.0282

ELEMENT = "Line.632633"
632           1       162.9 +j    115.1      199.4       0.8166
632           2       121.6 +j     92.9      153.0       0.7947
632           3       121.8 +j     93.0      153.2       0.7949
   TERMINAL TOTAL .   406.2 +j    300.9      505.6       0.8036
633           1      -162.5 +j   -114.6      198.9       0.8173
633           2      -121.4 +j    -92.6      152.7       0.7952
633           3      -121.5 +j    -92.7      152.8       0.7949
   TERMINAL TOTAL .  -405.4 +j   -299.9      504.3       0.8040

ELEMENT = "Line.632645"
632           3        79.6 +j    138.0      159.3       0.5000
632           2       334.2 +j    127.9      357.9       0.9339
   TERMINAL TOTAL .   413.9 +j    265.9      491.9       0.8413
645           3       -79.4 +j   -137.7      159.0       0.4996
645           2      -331.7 +j   -125.8      354.7       0.9350
   TERMINAL TOTAL .  -411.1 +j   -263.5      488.3       0.8419

ELEMENT = "Line.645646"
645           3        79.4 +j    137.7      159.0       0.4996
645           2       161.7 +j      0.8      161.7       1.0000
   TERMINAL TOTAL .   241.1 +j    138.5      278.1       0.8671
646           3       -79.2 +j   -137.5      158.7       0.4989
646           2      -161.4 +j     -0.5      161.4       1.0000
   TERMINAL TOTAL .  -240.6 +j   -138.1      277.4       0.8673

ELEMENT = "Line.692675"
692           1       488.2 +j     -1.1      488.2      -1.0000
692           2        69.2 +j   -161.6      175.8      -0.3934
692           3       290.5 +j     21.0      291.3       0.9974
   TERMINAL TOTAL .   847.9 +j   -141.8      859.7      -0.9863
675           1      -485.0 +j      3.2      485.0      -1.0000
675           2       -68.8 +j    162.1      176.1      -0.3908
675           3      -290.0 +j    -21.1      290.7       0.9974
   TERMINAL TOTAL .  -843.8 +j    144.2      856.0      -0.9857

ELEMENT = "Line.671684"
671           1       124.6 +j     83.5      149.9       0.8308
671           3       166.6 +j    -16.5      167.4      -0.9951
   TERMINAL TOTAL .   291.2 +j     67.0      298.8       0.9745
684           1      -124.4 +j    -83.2      149.6       0.8310
684           3      -166.2 +j     16.7      167.1      -0.9950
   TERMINAL TOTAL .  -290.6 +j    -66.5      298.1       0.9748

ELEMENT = "Line.684611"
684           3       166.2 +j    -16.7      167.1      -0.9950
   TERMINAL TOTAL .   166.2 +j    -16.7      167.1      -0.9950
611           3      -165.8 +j     17.1      166.7      -0.9947
   TERMINAL TOTAL .  -165.8 +j     17.1      166.7      -0.9947

ELEMENT = "Line.684652"
684           1       124.4 +j     83.2      149.6       0.8310
   TERMINAL TOTAL .   124.4 +j     83.2      149.6       0.8310
652           1      -123.5 +j    -83.0      148.8       0.8300
   TERMINAL TOTAL .  -123.5 +j    -83.0      148.8       0.8300

ELEMENT = "Line.671692"
671           1       531.0 +j    121.5      544.8       0.9748
671           2        69.2 +j   -161.6      175.8      -0.3934
671           3       416.2 +j     48.0      418.9       0.9934
   TERMINAL TOTAL .  1016.4 +j      7.9     1016.4       1.0000
692           1      -531.0 +j   -121.5      544.7       0.9748
692           2       -69.2 +j    161.6      175.8      -0.3934
692           3      -416.2 +j    -48.0      418.9       0.9934
   TERMINAL TOTAL . -1016.4 +j     -7.9     1016.4       1.0000

ELEMENT = "Capacitor.CAP1"
675           1        -0.0 +j   -193.2      193.2       0.0000
675           2         0.0 +j   -222.8      222.8       1.0000
675           3         0.0 +j   -190.9      190.9       1.0000
   TERMINAL TOTAL .    -0.0 +j   -606.9      606.9       0.0000
675           0         0.0 +j      0.0        0.0       1.0000
675           0         0.0 +j      0.0        0.0       1.0000
675           0         0.0 +j      0.0        0.0       1.0000
   TERMINAL TOTAL .     0.0 +j      0.0        0.0       1.0000

ELEMENT = "Capacitor.CAP2"
611           3         0.0 +j    -95.2       95.2       1.0000
   TERMINAL TOTAL .     0.0 +j    -95.2       95.2       1.0000
611           0         0.0 +j      0.0        0.0       1.0000
   TERMINAL TOTAL .     0.0 +j      0.0        0.0       1.0000

= = = = = = = = = = = = = = = = = = =  = = = = = = = = = = =  = =

Power Conversion Elements

  Bus     Phase     kW   +j  kvar         kVA         PF

ELEMENT = "Load.671"
671           1     383.5 +j  206.4      435.6       0.8806
671           2     396.7 +j  240.2      463.8       0.8554
671           3     374.8 +j  213.4      431.2       0.8690
  TERMINAL TOTAL  .  1155.0 +j    660.0     1330.3       0.8682

ELEMENT = "Load.634A"
634           1     160.0 +j  110.0      194.2       0.8241
634           0       0.0 +j    0.0        0.0       1.0000
  TERMINAL TOTAL  .   160.0 +j    110.0      194.2       0.8241

ELEMENT = "Load.634B"
634           2     120.0 +j   90.0      150.0       0.8000
634           0       0.0 +j    0.0        0.0       1.0000
  TERMINAL TOTAL  .   120.0 +j     90.0      150.0       0.8000

ELEMENT = "Load.634C"
634           3     120.0 +j   90.0      150.0       0.8000
634           0       0.0 +j    0.0        0.0       1.0000
  TERMINAL TOTAL  .   120.0 +j     90.0      150.0       0.8000

ELEMENT = "Load.645"
645           2     170.0 +j  125.0      211.0       0.8056
645           0       0.0 +j    0.0        0.0       1.0000
  TERMINAL TOTAL  .   170.0 +j    125.0      211.0       0.8056

ELEMENT = "Load.646"
646           2     161.4 +j    0.5      161.4       1.0000
646           3      79.2 +j  137.5      158.7       0.4989
  TERMINAL TOTAL  .   240.6 +j    138.1      277.4       0.8673

ELEMENT = "Load.692"
692           3     125.6 +j   27.0      128.5       0.9777
692           1      42.8 +j  122.6      129.9       0.3297
  TERMINAL TOTAL  .   168.4 +j    149.6      225.3       0.7477

ELEMENT = "Load.675A"
675           1     485.0 +j  190.0      520.9       0.9311
675           0       0.0 +j    0.0        0.0       1.0000
  TERMINAL TOTAL  .   485.0 +j    190.0      520.9       0.9311

ELEMENT = "Load.675B"
675           2      68.8 +j   60.7       91.8       0.7498
675           0       0.0 +j    0.0        0.0       1.0000
  TERMINAL TOTAL  .    68.8 +j     60.7       91.8       0.7498

ELEMENT = "Load.675C"
675           3     290.0 +j  212.0      359.2       0.8073
675           0       0.0 +j    0.0        0.0       1.0000
  TERMINAL TOTAL  .   290.0 +j    212.0      359.2       0.8073

ELEMENT = "Load.611"
611           3     165.8 +j   78.0      183.3       0.9048
611           0       0.0 +j    0.0        0.0       1.0000
  TERMINAL TOTAL  .   165.8 +j     78.0      183.3       0.9048

ELEMENT = "Load.652"
652           1     123.6 +j   83.0      148.8       0.8301
652           0       0.0 +j    0.0        0.0       1.0000
  TERMINAL TOTAL  .   123.6 +j     83.0      148.8       0.8301

ELEMENT = "Load.670A"
670           1      17.0 +j   10.0       19.7       0.8619
670           0       0.0 +j    0.0        0.0       1.0000
  TERMINAL TOTAL  .    17.0 +j     10.0       19.7       0.8619

ELEMENT = "Load.670B"
670           2      66.0 +j   38.0       76.2       0.8666
670           0       0.0 +j    0.0        0.0       1.0000
  TERMINAL TOTAL  .    66.0 +j     38.0       76.2       0.8666

ELEMENT = "Load.670C"
670           3     117.0 +j   68.0      135.3       0.8646
670           0       0.0 +j    0.0        0.0       1.0000
  TERMINAL TOTAL  .   117.0 +j     68.0      135.3       0.8646


Total Circuit Losses =  110.6 +j  322.2
