mtd/3phase_linearization/13Bus_copy/IEEE13Nodeckt_Power_seq_kVA.txt

SYMMETRICAL COMPONENT POWERS BY CIRCUIT ELEMENT (first 3 phases)                                     Excess Power

Element            Term    P1(kW)   Q1(kvar)       P2         Q2      P0      Q0       P_Norm      Q_Norm     P_Emerg    Q_Emerg

"Vsource.SOURCE"    1    -3577.7    -1722.6        0.0        0.0     0.0     0.0
"Vsource.SOURCE"    2        0.0        0.0        0.0        0.0     0.0     0.0
"Transformer.SUB"   1     3577.7     1722.6       -0.0       -0.0    -0.0    -0.0        0.0        0.0        0.0        0.0
"Transformer.SUB"   2    -3577.7    -1722.4        0.0        0.0     0.0     0.0
"Transformer.REG1"  1        0.0        0.0        0.0        0.0     0.0     0.0        0.0        0.0        0.0        0.0
"Transformer.REG1"  2        0.0        0.0        0.0        0.0     0.0     0.0
"Transformer.REG2"  1        0.0        0.0        0.0        0.0     0.0     0.0        0.0        0.0        0.0        0.0
"Transformer.REG2"  2        0.0        0.0        0.0        0.0     0.0     0.0
"Transformer.REG3"  1        0.0        0.0        0.0        0.0     0.0     0.0        0.0        0.0        0.0        0.0
"Transformer.REG3"  2        0.0        0.0        0.0        0.0     0.0     0.0
"Transformer.XFM1"  1      405.6      300.4       -0.3        0.0     0.2    -0.5       25.0       18.5        0.0        0.0
"Transformer.XFM1"  2     -400.2     -290.7        0.3        0.1    -0.1     0.6
"Line.650632"       1     3574.1     1719.2        2.2        1.2     1.0     1.5     1135.1      546.4        0.0        0.0
"Line.650632"       2    -3520.3    -1535.3        1.0        2.9     1.7     3.1
"Line.632670"       1     2703.5      970.9       -3.1       -3.9    -2.8    -4.5      442.3      157.8        0.0        0.0
"Line.632670"       2    -2694.2     -936.6        4.9        6.6     4.5     8.1
"Line.670671"       1     2493.6      820.8       -5.8       -6.0    -3.0    -8.9      371.8      120.6        0.0        0.0
"Line.670671"       2    -2478.2     -762.9        9.3       11.4     6.4    16.6
"Line.671680"       1        0.0       -0.0       -0.0       -0.0     0.0    -0.0        0.0        0.0        0.0        0.0
"Line.671680"       2       -0.0        0.0       -0.0       -0.0    -0.0    -0.0
"Line.632633"       1      406.3      301.4       -0.3        0.0     0.2    -0.5        0.0        0.0        0.0        0.0
"Line.632633"       2     -405.6     -300.4        0.3       -0.0    -0.2     0.5
"Line.632645"       1        0.0        0.0        0.0        0.0     0.0     0.0        0.0        0.0        0.0        0.0
"Line.632645"       2        0.0        0.0        0.0        0.0     0.0     0.0
"Line.645646"       1        0.0        0.0        0.0        0.0     0.0     0.0        0.0        0.0        0.0        0.0
"Line.645646"       2        0.0        0.0        0.0        0.0     0.0     0.0
"Line.692675"       1      857.7     -122.5       -5.2       -3.5    -4.6   -15.8        0.0        0.0        0.0        0.0
"Line.692675"       2     -855.7      124.0        5.5        3.8     6.4    16.4
"Line.671684"       1        0.0        0.0        0.0        0.0     0.0     0.0        0.0        0.0        0.0        0.0
"Line.671684"       2        0.0        0.0        0.0        0.0     0.0     0.0
"Line.684611"       1        0.0        0.0        0.0        0.0     0.0     0.0        0.0        0.0        0.0        0.0
"Line.684611"       2        0.0        0.0        0.0        0.0     0.0     0.0
"Line.684652"       1        0.0        0.0        0.0        0.0     0.0     0.0        0.0        0.0        0.0        0.0
"Line.684652"       2        0.0        0.0        0.0        0.0     0.0     0.0
"Line.671692"       1     1027.3       31.4       -6.3       -7.7    -4.6   -15.8        0.0        0.0        0.0        0.0
"Line.671692"       2    -1027.3      -31.4        6.3        7.7     4.6    15.8
"Capacitor.CAP1"    1        0.0     -605.8        0.0       -0.3    -0.0    -0.8        0.0        0.0        0.0        0.0
"Capacitor.CAP1"    2        0.0        0.0        0.0        0.0     0.0     0.0
"Capacitor.CAP2"    1        0.0        0.0        0.0        0.0     0.0     0.0        0.0        0.0        0.0        0.0
"Capacitor.CAP2"    2        0.0        0.0        0.0        0.0     0.0     0.0
"Load.671"          1     1155.0      660.0        0.0       -0.0     0.0    -0.0
"Load.634A"         1        0.0        0.0        0.0        0.0     0.0     0.0
"Load.634B"         1        0.0        0.0        0.0        0.0     0.0     0.0
"Load.634C"         1        0.0        0.0        0.0        0.0     0.0     0.0
"Load.645"          1        0.0        0.0        0.0        0.0     0.0     0.0
"Load.646"          1        0.0        0.0        0.0        0.0     0.0     0.0
"Load.692"          1        0.0        0.0        0.0        0.0     0.0     0.0
"Load.675A"         1        0.0        0.0        0.0        0.0     0.0     0.0
"Load.675B"         1        0.0        0.0        0.0        0.0     0.0     0.0
"Load.675C"         1        0.0        0.0        0.0        0.0     0.0     0.0
"Load.611"          1        0.0        0.0        0.0        0.0     0.0     0.0
"Load.652"          1        0.0        0.0        0.0        0.0     0.0     0.0
"Load.670A"         1        0.0        0.0        0.0        0.0     0.0     0.0
"Load.670B"         1        0.0        0.0        0.0        0.0     0.0     0.0
"Load.670C"         1        0.0        0.0        0.0        0.0     0.0     0.0

Total Circuit Losses =  110.6 +j  322.2
