mtd/3phase_linearization/13Bus_copy/IEEE13Nodeckt_VLN_Node.Txt

LINE-GROUND and LINE-LINE VOLTAGES BY BUS & NODE

Bus       Node    VLN (kV)   Angle      pu     Base kV    Node-Node   VLL (kV)  Angle      pu

SOURCEBUS 1       66.394 /_   30.0   0.99998   115.000        1-2        115 /_   60.0         1
   -      2       66.395 /_  -90.0         1   115.000        2-3        115 /_  -60.0   0.99998
   -      3       66.392 /_  150.0   0.99995   115.000        3-1     114.99 /_  180.0   0.99995
650 ..... 1       2.4016 /_    0.0   0.99992     4.160        1-2     4.1598 /_   30.0   0.99994
   -      2       2.4017 /_ -120.0   0.99997     4.160        2-3     4.1599 /_  -90.0   0.99997
   -      3       2.4016 /_  120.0   0.99994     4.160        3-1     4.1596 /_  150.0   0.99991
RG60 .... 1       2.5514 /_    0.0    1.0623     4.160        1-2     4.3933 /_   29.8    1.0561
   -      2       2.5216 /_ -120.0    1.0499     4.160        2-3     4.4065 /_  -89.7    1.0593
   -      3       2.5664 /_  120.0    1.0686     4.160        3-1     4.4321 /_  149.9    1.0654
633 ..... 1       2.4563 /_   -2.1    1.0227     4.160        1-2      4.277 /_   28.5    1.0281
   -      2       2.4976 /_ -121.5    1.0399     4.160        2-3     4.2947 /_  -91.9    1.0324
   -      3       2.4545 /_  118.3    1.0219     4.160        3-1     4.2598 /_  148.1     1.024
634 ..... 1       0.2768 /_   -2.7   0.99883     0.480        1-2    0.48287 /_   28.1     1.006
   -      2      0.28309 /_ -121.9    1.0215     0.480        2-3    0.48668 /_  -92.4    1.0139
   -      3      0.27803 /_  117.8    1.0032     0.480        3-1    0.48177 /_  147.5    1.0037
671 ..... 1        2.394 /_   -4.3   0.99675     4.160        1-2     4.2082 /_   27.8    1.0116
   -      2       2.5237 /_ -122.0    1.0508     4.160        2-3     4.2712 /_  -93.5    1.0267
   -      3       2.3795 /_  116.9   0.99072     4.160        3-1     4.1587 /_  146.4   0.99968
645 ..... 2       2.4809 /_ -121.6    1.0329     4.160        2-3     4.2783 /_  -91.8    1.0284
   -      3       2.4555 /_  118.3    1.0224     4.160
646 ..... 2       2.4767 /_ -121.6    1.0312     4.160        2-3     4.2683 /_  -91.8     1.026
   -      3        2.451 /_  118.3    1.0205     4.160
692 ..... 1        2.394 /_   -4.3   0.99675     4.160        1-2     4.2082 /_   27.8    1.0116
   -      2       2.5237 /_ -122.0    1.0508     4.160        2-3     4.2712 /_  -93.5    1.0267
   -      3       2.3795 /_  116.9   0.99072     4.160        3-1     4.1587 /_  146.4   0.99968
675 ..... 1       2.3787 /_   -4.5   0.99038     4.160        1-2     4.1988 /_   27.7    1.0093
   -      2       2.5289 /_ -122.1    1.0529     4.160        2-3     4.2677 /_  -93.6    1.0259
   -      3        2.375 /_  116.9   0.98886     4.160        3-1     4.1464 /_  146.2   0.99672
611 ..... 3       2.3699 /_  116.7   0.98671     4.160
652 ..... 1       2.3764 /_   -4.2   0.98945     4.160
670 ..... 1       2.4405 /_   -2.8    1.0161     4.160        1-2     4.2598 /_   28.3     1.024
   -      2       2.5074 /_ -121.6     1.044     4.160        2-3     4.2904 /_  -92.4    1.0313
   -      3       2.4304 /_  117.7    1.0119     4.160        3-1     4.2293 /_  147.6    1.0166
632 ..... 1        2.463 /_   -2.0    1.0255     4.160        1-2     4.2867 /_   28.5    1.0304
   -      2       2.5018 /_ -121.4    1.0416     4.160        2-3      4.304 /_  -91.9    1.0346
   -      3       2.4601 /_  118.3    1.0243     4.160        3-1     4.2695 /_  148.1    1.0263
680 ..... 1        2.394 /_   -4.3   0.99675     4.160        1-2     4.2082 /_   27.8    1.0116
   -      2       2.5237 /_ -122.0    1.0508     4.160        2-3     4.2712 /_  -93.5    1.0267
   -      3       2.3795 /_  116.9   0.99072     4.160        3-1     4.1587 /_  146.4   0.99968
684 ..... 1       2.3895 /_   -4.3   0.99487     4.160
   -      3       2.3747 /_  116.8   0.98873     4.160        3-1     4.1491 /_  146.3   0.99737
